C00000734.cdx
  981               3D

 26 26  0  0  1  0  0  0  0  0999 V2000
    2.3233   -0.2056    1.1728 C   0  0  0  0  0  0  0  0  0  0  0  0
    1.2952   -0.8488    1.9437 C   0  0  0  0  0  0  0  0  0  0  0  0
    0.1108   -1.1530    1.3890 C   0  0  0  0  0  0  0  0  0  0  0  0
   -0.2722   -0.6947   -0.0081 C   0  0  0  0  0  0  0  0  0  0  0  0
    0.5894    0.5258   -0.4586 C   0  0  0  0  0  0  0  0  0  0  0  0
    2.0054    0.4491    0.0484 C   0  0  0  0  0  0  0  0  0  0  0  0
   -0.0498   -1.7030   -1.0101 O   0  0  0  0  0  0  0  0  0  0  0  0
   -0.6763   -2.9018   -0.7816 C   0  0  0  0  0  0  0  0  0  0  0  0
   -0.0072   -4.0251   -0.5111 C   0  0  0  0  0  0  0  0  0  0  0  0
    0.0194    1.7258    0.0827 O   0  0  0  0  0  0  0  0  0  0  0  0
   -2.1292   -2.9917   -0.9238 C   0  0  0  0  0  0  0  0  0  0  0  0
   -2.9217   -2.9094    0.0064 O   0  0  0  0  0  0  0  0  0  0  0  0
   -2.4619   -3.1577   -2.2224 O   0  0  0  0  0  0  0  0  0  0  0  0
    3.0919    1.0291   -0.7395 C   0  0  0  0  0  0  0  0  0  0  0  0
    3.6963    0.4394   -1.6218 O   0  0  0  0  0  0  0  0  0  0  0  0
    3.3106    2.3007   -0.3323 O   0  0  0  0  0  0  0  0  0  0  0  0
    3.3342   -0.2648    1.5486 H   0  0  0  0  0  0  0  0  0  0  0  0
    1.5288   -1.1727    2.9481 H   0  0  0  0  0  0  0  0  0  0  0  0
   -0.6207   -1.7245    1.9557 H   0  0  0  0  0  0  0  0  0  0  0  0
   -1.3358   -0.3999   -0.0065 H   0  0  0  0  0  0  0  0  0  0  0  0
    0.5550    0.6141   -1.5553 H   0  0  0  0  0  0  0  0  0  0  0  0
    1.0693   -3.9887   -0.4302 H   0  0  0  0  0  0  0  0  0  0  0  0
   -0.4970   -4.9854   -0.3609 H   0  0  0  0  0  0  0  0  0  0  0  0
    0.1664    2.4305   -0.5727 H   0  0  0  0  0  0  0  0  0  0  0  0
   -2.7629   -4.0670   -2.4177 H   0  0  0  0  0  0  0  0  0  0  0  0
    4.2634    2.4516   -0.1666 H   0  0  0  0  0  0  0  0  0  0  0  0
  1  2  1  0  0  0  0
  2  3  2  0  0  0  0
  3  4  1  0  0  0  0
  4  5  1  0  0  0  0
  5  6  1  0  0  0  0
  6  1  2  0  0  0  0
  4  7  1  1  0  0  0
  7  8  1  0  0  0  0
  8 11  1  0  0  0  0
  8  9  2  0  0  0  0
  5 10  1  6  0  0  0
  6 14  1  0  0  0  0
 11 12  2  0  0  0  0
 11 13  1  0  0  0  0
 14 15  2  0  0  0  0
 14 16  1  0  0  0  0
  1 17  1  0  0  0  0
  2 18  1  0  0  0  0
  3 19  1  0  0  0  0
  4 20  1  0  0  0  0
  5 21  1  0  0  0  0
  9 22  1  0  0  0  0
  9 23  1  0  0  0  0
 10 24  1  0  0  0  0
 13 25  1  0  0  0  0
 16 26  1  0  0  0  0
M  END
>  <energy>
62.878278765036363

$$$$
