C00000730.cdx
  981               3D

 27 27  0  0  1  0  0  0  0  0999 V2000
    2.6562   -1.1866   -0.2000 C   0  0  0  0  0  0  0  0  0  0  0  0
    1.7776   -2.1228   -0.5822 C   0  0  0  0  0  0  0  0  0  0  0  0
    0.2934   -1.8621   -0.6240 C   0  0  0  0  0  0  0  0  0  0  0  0
   -0.1595   -0.6153    0.1916 C   0  0  0  0  0  0  0  0  0  0  0  0
    0.9163    0.4466    0.2971 C   0  0  0  0  0  0  0  0  0  0  0  0
    2.2165    0.1398    0.1552 C   0  0  0  0  0  0  0  0  0  0  0  0
   -1.3085   -0.0685   -0.4864 O   0  0  0  0  0  0  0  0  0  0  0  0
   -2.4191    0.1216    0.3114 C   0  0  0  0  0  0  0  0  0  0  0  0
   -3.0378   -0.8452    1.0030 C   0  0  0  0  0  0  0  0  0  0  0  0
   -0.4658   -3.0299   -0.1650 N   0  0  0  0  0  0  0  0  0  0  0  0
   -3.1575    1.3933    0.1659 C   0  0  0  0  0  0  0  0  0  0  0  0
   -4.3630    1.4940    0.0014 O   0  0  0  0  0  0  0  0  0  0  0  0
   -2.2896    2.4278    0.1690 O   0  0  0  0  0  0  0  0  0  0  0  0
    3.2105    1.1796    0.4660 C   0  0  0  0  0  0  0  0  0  0  0  0
    3.7136    1.9298   -0.3540 O   0  0  0  0  0  0  0  0  0  0  0  0
    3.5205    1.1298    1.7828 O   0  0  0  0  0  0  0  0  0  0  0  0
    3.7198   -1.4020   -0.1987 H   0  0  0  0  0  0  0  0  0  0  0  0
    2.1470   -3.0887   -0.9169 H   0  0  0  0  0  0  0  0  0  0  0  0
    0.0255   -1.7137   -1.6777 H   0  0  0  0  0  0  0  0  0  0  0  0
   -0.3986   -0.9003    1.2276 H   0  0  0  0  0  0  0  0  0  0  0  0
    0.6166    1.4404    0.6213 H   0  0  0  0  0  0  0  0  0  0  0  0
   -2.6598   -1.8608    1.0157 H   0  0  0  0  0  0  0  0  0  0  0  0
   -3.9361   -0.6560    1.5819 H   0  0  0  0  0  0  0  0  0  0  0  0
   -0.3230   -3.8087   -0.8067 H   0  0  0  0  0  0  0  0  0  0  0  0
   -0.1207   -3.3350    0.7444 H   0  0  0  0  0  0  0  0  0  0  0  0
   -2.3245    2.9239   -0.6769 H   0  0  0  0  0  0  0  0  0  0  0  0
    4.4048    0.7334    1.9402 H   0  0  0  0  0  0  0  0  0  0  0  0
  1  2  2  0  0  0  0
  2  3  1  0  0  0  0
  3  4  1  0  0  0  0
  4  5  1  0  0  0  0
  5  6  2  0  0  0  0
  6  1  1  0  0  0  0
  4  7  1  1  0  0  0
  7  8  1  0  0  0  0
  8 11  1  0  0  0  0
  8  9  2  0  0  0  0
  3 10  1  6  0  0  0
  6 14  1  0  0  0  0
 11 12  2  0  0  0  0
 11 13  1  0  0  0  0
 14 15  2  0  0  0  0
 14 16  1  0  0  0  0
  1 17  1  0  0  0  0
  2 18  1  0  0  0  0
  3 19  1  0  0  0  0
  4 20  1  0  0  0  0
  5 21  1  0  0  0  0
  9 22  1  0  0  0  0
  9 23  1  0  0  0  0
 10 24  1  0  0  0  0
 10 25  1  0  0  0  0
 13 26  1  0  0  0  0
 16 27  1  0  0  0  0
M  END
>  <energy>
59.966559672692682

$$$$
