C00000733.cdx
  981               3D

 26 26  0  0  1  0  0  0  0  0999 V2000
    2.6537   -1.2177   -0.1088 C   0  0  0  0  0  0  0  0  0  0  0  0
    1.7581   -2.1466   -0.4659 C   0  0  0  0  0  0  0  0  0  0  0  0
    0.2900   -1.8397   -0.5704 C   0  0  0  0  0  0  0  0  0  0  0  0
   -0.1409   -0.5468    0.1693 C   0  0  0  0  0  0  0  0  0  0  0  0
    0.9540    0.4971    0.2225 C   0  0  0  0  0  0  0  0  0  0  0  0
    2.2479    0.1461    0.1261 C   0  0  0  0  0  0  0  0  0  0  0  0
   -1.2874   -0.0271   -0.5333 O   0  0  0  0  0  0  0  0  0  0  0  0
   -2.4281    0.1222    0.2293 C   0  0  0  0  0  0  0  0  0  0  0  0
   -2.9789   -0.8380    0.9887 C   0  0  0  0  0  0  0  0  0  0  0  0
   -0.4456   -2.9304   -0.0146 O   0  0  0  0  0  0  0  0  0  0  0  0
   -3.2642    1.3200   -0.0109 C   0  0  0  0  0  0  0  0  0  0  0  0
   -4.4865    1.3238   -0.0449 O   0  0  0  0  0  0  0  0  0  0  0  0
   -2.4955    2.4005   -0.2814 O   0  0  0  0  0  0  0  0  0  0  0  0
    3.2622    1.1655    0.4344 C   0  0  0  0  0  0  0  0  0  0  0  0
    3.6961    1.4003    1.5497 O   0  0  0  0  0  0  0  0  0  0  0  0
    3.6779    1.7475   -0.7122 O   0  0  0  0  0  0  0  0  0  0  0  0
    3.7064   -1.4721   -0.0421 H   0  0  0  0  0  0  0  0  0  0  0  0
    2.0961   -3.1495   -0.7072 H   0  0  0  0  0  0  0  0  0  0  0  0
    0.0177   -1.7800   -1.6315 H   0  0  0  0  0  0  0  0  0  0  0  0
   -0.3925   -0.7791    1.2135 H   0  0  0  0  0  0  0  0  0  0  0  0
    0.6748    1.5180    0.4706 H   0  0  0  0  0  0  0  0  0  0  0  0
   -2.5234   -1.8165    1.0856 H   0  0  0  0  0  0  0  0  0  0  0  0
   -3.8963   -0.6790    1.5456 H   0  0  0  0  0  0  0  0  0  0  0  0
   -0.0870   -3.7561   -0.3807 H   0  0  0  0  0  0  0  0  0  0  0  0
   -1.6551    2.4403    0.2221 H   0  0  0  0  0  0  0  0  0  0  0  0
    3.4938    2.7105   -0.7235 H   0  0  0  0  0  0  0  0  0  0  0  0
  1  2  2  0  0  0  0
  2  3  1  0  0  0  0
  3  4  1  0  0  0  0
  4  5  1  0  0  0  0
  5  6  2  0  0  0  0
  6  1  1  0  0  0  0
  4  7  1  1  0  0  0
  7  8  1  0  0  0  0
  8 11  1  0  0  0  0
  8  9  2  0  0  0  0
  3 10  1  6  0  0  0
  6 14  1  0  0  0  0
 11 12  2  0  0  0  0
 11 13  1  0  0  0  0
 14 15  2  0  0  0  0
 14 16  1  0  0  0  0
  1 17  1  0  0  0  0
  2 18  1  0  0  0  0
  3 19  1  0  0  0  0
  4 20  1  0  0  0  0
  5 21  1  0  0  0  0
  9 22  1  0  0  0  0
  9 23  1  0  0  0  0
 10 24  1  0  0  0  0
 13 25  1  0  0  0  0
 16 26  1  0  0  0  0
M  END
>  <energy>
54.710794644055788

$$$$
